<?xml version="1.0" encoding="UTF-8"?>
<net version="1.9" xmlns:xsi="http://www.w3.org/2001/XMLSchema-instance">
    <nodes>
        <node id="north" x="0" y="500" type="traffic_light"/>
        <node id="south" x="0" y="0" type="priority"/>
        <node id="west"  x="-500" y="250" type="priority"/>
        <node id="east"  x="500" y="250" type="priority"/>
    </nodes>
    <edges>
        <edge id="north2center" from="north" to="south" numLanes="2" speed="13.9"/>
        <edge id="center2north" from="south" to="north" numLanes="2" speed="13.9"/>
        <edge id="west2center" from="west" to="south" numLanes="2" speed="13.9"/>
        <edge id="center2west" from="south" to="west" numLanes="2" speed="13.9"/>
        <edge id="east2center" from="east" to="south" numLanes="2" speed="13.9"/>
        <edge id="center2east" from="south" to="east" numLanes="2" speed="13.9"/>
    </edges>
</net>
