<edges>

    <!-- North ↔ Center -->
    <edge id="NtoC" from="N" to="C" numLanes="2" speed="13.9"/>
    <edge id="CtoN" from="C" to="N" numLanes="2" speed="13.9"/>

    <!-- South ↔ Center -->
    <edge id="StoC" from="S" to="C" numLanes="2" speed="13.9"/>
    <edge id="CtoS" from="C" to="S" numLanes="2" speed="13.9"/>

    <!-- West ↔ Center -->
    <edge id="WtoC" from="W" to="C" numLanes="2" speed="13.9"/>
    <edge id="CtoW" from="C" to="W" numLanes="2" speed="13.9"/>

    <!-- East ↔ Center -->
    <edge id="EtoC" from="E" to="C" numLanes="2" speed="13.9"/>
    <edge id="CtoE" from="C" to="E" numLanes="2" speed="13.9"/>

</edges>

