<nodes>
    <node id="C" x="0" y="0" type="traffic_light"/>     <!-- Center -->
    <node id="N" x="0" y="300" type="priority"/>
    <node id="S" x="0" y="-300" type="priority"/>
    <node id="W" x="-300" y="0" type="priority"/>
    <node id="E" x="300" y="0" type="priority"/>
</nodes>

